Version 4
SHEET 1 3724 680
WIRE 2656 -1344 2528 -1344
WIRE 2848 -1344 2720 -1344
WIRE 3040 -1344 2848 -1344
WIRE 3120 -1344 3040 -1344
WIRE 2528 -1312 2528 -1344
WIRE 3040 -1248 3040 -1344
WIRE 2528 -1200 2528 -1232
WIRE 2848 -1200 2848 -1344
WIRE 2528 -1072 2528 -1120
WIRE 2848 -1072 2848 -1120
WIRE 2848 -1072 2528 -1072
WIRE 3040 -1072 3040 -1168
WIRE 3040 -1072 2848 -1072
WIRE 832 -1056 704 -1056
WIRE 1216 -1056 1088 -1056
WIRE 2848 -1024 2848 -1072
WIRE 704 -992 704 -1056
WIRE 1088 -992 1088 -1056
WIRE 2656 -896 2528 -896
WIRE 2784 -896 2656 -896
WIRE 2832 -896 2784 -896
WIRE 704 -880 704 -912
WIRE 1088 -880 1088 -912
WIRE 2528 -848 2528 -896
WIRE 2656 -848 2656 -896
WIRE 2784 -848 2784 -896
WIRE 1152 -784 704 -784
WIRE 1280 -784 1152 -784
WIRE 704 -752 704 -784
WIRE 1280 -736 1280 -784
WIRE 2528 -720 2528 -768
WIRE 2656 -720 2656 -768
WIRE 2656 -720 2528 -720
WIRE 2784 -720 2784 -784
WIRE 2784 -720 2656 -720
WIRE 704 -656 704 -672
WIRE 1024 -656 704 -656
WIRE 704 -624 704 -656
WIRE 1024 -624 1024 -656
WIRE 1152 -624 1152 -784
WIRE 1280 -624 1280 -656
WIRE 704 -496 704 -544
WIRE 2560 -480 2528 -480
WIRE 2656 -480 2624 -480
WIRE 1152 -464 1152 -544
WIRE 1248 -464 1152 -464
WIRE 1408 -464 1312 -464
WIRE 2656 -432 2656 -480
WIRE 1152 -416 1152 -464
WIRE 1408 -416 1408 -464
WIRE 832 -368 704 -368
WIRE 1024 -368 1024 -544
WIRE 1024 -368 896 -368
WIRE 1088 -368 1024 -368
WIRE 704 -336 704 -368
WIRE 2528 -320 2528 -480
WIRE 2656 -288 2656 -352
WIRE 2688 -288 2656 -288
WIRE 2784 -288 2752 -288
WIRE 2832 -288 2784 -288
WIRE 1152 -272 1152 -320
WIRE 1280 -272 1152 -272
WIRE 1408 -272 1408 -336
WIRE 1520 -272 1408 -272
WIRE 1696 -272 1584 -272
WIRE 1744 -272 1696 -272
WIRE 704 -240 704 -256
WIRE 704 -240 608 -240
WIRE 2656 -240 2656 -288
WIRE 2784 -240 2784 -288
WIRE 704 -224 704 -240
WIRE 1024 -224 1024 -368
WIRE 1152 -224 1152 -272
WIRE 1280 -224 1280 -272
WIRE 1408 -224 1408 -272
WIRE 1696 -224 1696 -272
WIRE 2528 -112 2528 -240
WIRE 2656 -112 2656 -160
WIRE 2656 -112 2528 -112
WIRE 2784 -112 2784 -160
WIRE 2784 -112 2656 -112
WIRE 704 -96 704 -144
WIRE 1024 -96 1024 -144
WIRE 1024 -96 704 -96
WIRE 1152 -96 1152 -144
WIRE 1152 -96 1024 -96
WIRE 1280 -96 1280 -160
WIRE 1280 -96 1152 -96
WIRE 1408 -96 1408 -144
WIRE 1408 -96 1280 -96
WIRE 1696 -96 1696 -144
WIRE 1696 -96 1408 -96
WIRE 2656 -64 2656 -112
WIRE 1024 -48 1024 -96
FLAG 1280 -544 0
FLAG 1024 -48 0
FLAG 1744 -272 output
IOPIN 1744 -272 Out
FLAG 704 -496 0
FLAG 704 -880 0
FLAG 832 -1056 alpha_lin
FLAG 2832 -288 output_port9
IOPIN 2832 -288 Out
FLAG 2656 -64 0
FLAG 2832 -896 output_port8
IOPIN 2832 -896 Out
FLAG 2656 -720 0
FLAG 2848 -1024 0
FLAG 3120 -1344 output_port7
IOPIN 3120 -1344 Out
FLAG 608 -240 input
IOPIN 608 -240 In
FLAG 1088 -880 0
FLAG 1216 -1056 alpha_vol
SYMBOL res 1136 -640 R0
SYMATTR InstName R5
SYMATTR Value 22k
SYMBOL res 1008 -640 R0
SYMATTR InstName R3
SYMATTR Value 220k
SYMBOL voltage 1280 -640 R0
WINDOW 123 0 0 Left 0
WINDOW 39 0 0 Left 0
SYMATTR InstName Vcc
SYMATTR Value 9
SYMBOL res 1136 -240 R0
SYMATTR InstName R81
SYMATTR Value 22k
SYMBOL res 1392 -240 R0
SYMATTR InstName R92
SYMATTR Value R=V(alpha_vol)*Rvol
SYMBOL res 1008 -240 R0
SYMATTR InstName R72
SYMATTR Value 50k
SYMBOL voltage 704 -240 R0
WINDOW 123 0 0 Left 0
WINDOW 39 0 0 Left 0
WINDOW 3 -154 113 Left 2
SYMATTR Value wavefile="./x.wav" chan=0
SYMATTR InstName Vin
SYMBOL res 1680 -240 R0
SYMATTR InstName Rout
SYMATTR Value 100k
SYMBOL res 1392 -432 R0
SYMATTR InstName R93
SYMATTR Value R=(1-V(alpha_vol))*Rvol
SYMBOL res 688 -768 R0
SYMATTR InstName R4
SYMATTR Value R=(1-V(alpha_lin))*Rlin
SYMBOL res 688 -640 R0
SYMATTR InstName R6
SYMATTR Value R=V(alpha_lin)*Rlin
SYMBOL voltage 704 -1008 R0
WINDOW 123 0 0 Left 0
WINDOW 39 0 0 Left 0
SYMATTR InstName V2
SYMATTR Value PWL(0 0.5 10 0.5)
SYMBOL res 688 -352 R0
SYMATTR InstName Rin
SYMATTR Value 22k
SYMBOL cap 896 -384 R90
WINDOW 0 0 32 VBottom 2
WINDOW 3 32 32 VTop 2
SYMATTR InstName C71
SYMATTR Value 4.7Á
SYMBOL cap 1312 -480 R90
WINDOW 0 0 32 VBottom 2
WINDOW 3 32 32 VTop 2
SYMATTR InstName C94
SYMATTR Value 4.7Á
SYMBOL cap 1264 -224 R0
SYMATTR InstName C81
SYMATTR Value 4.7Á
SYMBOL cap 1584 -288 R90
WINDOW 0 0 32 VBottom 2
WINDOW 3 32 32 VTop 2
SYMATTR InstName C91
SYMATTR Value 4.7Á
SYMBOL res 2640 -256 R0
SYMATTR InstName R7
SYMATTR Value 40k
SYMBOL res 2768 -256 R0
SYMATTR InstName Rout1
SYMATTR Value 100k
SYMBOL res 2640 -448 R0
SYMATTR InstName R8
SYMATTR Value 10k
SYMBOL cap 2752 -304 R90
WINDOW 0 0 32 VBottom 2
WINDOW 3 32 32 VTop 2
SYMATTR InstName C1
SYMATTR Value 4.7Á
SYMBOL voltage 2528 -336 R0
WINDOW 3 -242 104 Left 2
SYMATTR Value wavefile = "./x.wav" chan=0
SYMATTR InstName V4
SYMBOL cap 2624 -496 R90
WINDOW 0 0 32 VBottom 2
WINDOW 3 32 32 VTop 2
SYMATTR InstName C2
SYMATTR Value 4.7Á
SYMBOL res 2640 -864 R0
SYMATTR InstName R9
SYMATTR Value 22k
SYMBOL cap 2768 -848 R0
SYMATTR InstName C3
SYMATTR Value 4.7Á
SYMBOL voltage 2528 -864 R0
WINDOW 3 -242 104 Left 2
SYMATTR Value wavefile = "./x.wav" chan=0
SYMATTR InstName V3
SYMBOL res 2832 -1216 R0
SYMATTR InstName R10
SYMATTR Value 50k
SYMBOL voltage 2528 -1216 R0
WINDOW 123 0 0 Left 0
WINDOW 39 0 0 Left 0
WINDOW 3 -154 113 Left 2
SYMATTR Value wavefile="./x.wav" chan=0
SYMATTR InstName Vin1
SYMBOL res 2512 -1328 R0
SYMATTR InstName Rin1
SYMATTR Value 22k
SYMBOL cap 2720 -1360 R90
WINDOW 0 0 32 VBottom 2
WINDOW 3 32 32 VTop 2
SYMATTR InstName C4
SYMATTR Value 4.7Á
SYMBOL res 3024 -1264 R0
SYMATTR InstName R11
SYMATTR Value 100k
SYMBOL res 1264 -752 R0
SYMATTR InstName R12
SYMATTR Value 1e-2
SYMBOL voltage 1088 -1008 R0
WINDOW 123 0 0 Left 0
WINDOW 39 0 0 Left 0
SYMATTR InstName V1
SYMATTR Value PWL(0 0.5 10 0.5)
SYMBOL npn 1088 -416 R0
SYMATTR InstName Q1
SYMATTR Value BC108A
TEXT 1536 -672 Left 2 !.tran 5
TEXT 1536 -808 Left 2 !.param Rlin 10k
TEXT 1536 -744 Left 2 !.wav "./output_fuzz.wav" 32 48k V(output)
TEXT 1536 -776 Left 2 !.wav "./input_fuzz.wav" 32 48k V(input)
TEXT 2344 16 Left 2 !.wav "./output_port9.wav" 32 48k V(output_port9)
TEXT 2336 -616 Left 2 !.wav "./output_port8.wav" 32 48k V(output_port8)
TEXT 2520 -984 Left 2 !.wav "./output_port7.wav" 32 48k V(output_port7)
TEXT 1536 -840 Left 2 !.include "./standard.bjt"
TEXT 1752 -808 Left 2 !.param Rvol 50k
