Version 4
SHEET 1 1096 680
WIRE 352 -128 -96 -128
WIRE -96 -64 -96 -128
WIRE -96 32 -96 16
WIRE -96 32 -144 32
WIRE -96 48 -96 32
WIRE -144 64 -192 64
WIRE 352 80 352 -128
WIRE 400 80 352 80
WIRE -144 112 -240 112
WIRE -192 160 -192 64
WIRE -96 160 -96 128
WIRE -96 160 -192 160
WIRE -96 192 -96 160
WIRE -96 192 -240 192
WIRE 352 192 352 80
WIRE -96 240 -96 192
WIRE -96 240 -144 240
WIRE 64 240 -96 240
WIRE 256 240 144 240
WIRE 288 240 256 240
WIRE -96 288 -96 240
WIRE 256 288 256 240
WIRE -96 384 -96 368
WIRE -96 384 -144 384
WIRE -96 400 -96 384
WIRE -96 528 -96 480
WIRE 352 528 352 288
WIRE 352 528 -96 528
WIRE -96 576 -96 528
FLAG -96 576 0
FLAG -144 32 v2
IOPIN -144 32 In
FLAG -144 384 v1
IOPIN -144 384 In
FLAG 400 80 vc
IOPIN 400 80 Out
FLAG 256 288 vb
IOPIN 256 288 In
FLAG -144 240 va
IOPIN -144 240 Out
SYMBOL npn 288 192 R0
SYMATTR InstName Q1
SYMATTR Value BC108A
SYMBOL res -112 272 R0
SYMATTR InstName R1
SYMATTR Value 14295
SYMBOL voltage -96 384 R0
WINDOW 123 0 0 Left 0
WINDOW 39 0 0 Left 0
WINDOW 3 -128 102 Left 2
SYMATTR Value wavefile="./v1.wav" chan=0
SYMATTR InstName V1
SYMBOL res -112 -80 R0
SYMATTR InstName R2
SYMATTR Value 27555
SYMBOL res 160 224 R90
WINDOW 0 0 56 VBottom 2
WINDOW 3 32 56 VTop 2
SYMATTR InstName R3
SYMATTR Value 14290
SYMBOL e2 -96 32 R0
SYMATTR InstName E1
SYMATTR Value 0
SYMBOL voltage -240 96 R0
SYMATTR InstName V2
SYMATTR Value wavefile="./v2.wav" chan=0
TEXT 568 -128 Left 2 !.tran 0 2 0 2e-6
TEXT 568 -96 Left 2 !.include "../standard.bjt"
TEXT 568 -64 Left 2 !.options plotwinsize=0
TEXT 568 -32 Left 2 !.options fastaccess
TEXT 568 0 Left 2 !.wav "./output_v1.wav" 32 192k V(v1)
TEXT 568 32 Left 2 !.wav "./output_v2.wav" 32 192k V(v2)
TEXT 568 64 Left 2 !.wav "./output_vb.wav" 32 192k V(vb)
TEXT 568 96 Left 2 !.wav "./output_vc.wav" 32 192k V(vc)
